Version 4
SHEET 1 880 680
WIRE 432 -176 368 -176
WIRE 528 -176 496 -176
WIRE 368 -80 368 -176
WIRE 416 -80 368 -80
WIRE 528 -80 528 -176
WIRE 528 -80 496 -80
WIRE 272 32 224 32
WIRE 368 32 368 -80
WIRE 368 32 352 32
WIRE 400 32 368 32
WIRE 528 48 528 -80
WIRE 528 48 464 48
WIRE 576 48 528 48
WIRE 400 64 368 64
WIRE 16 112 -32 112
WIRE 256 112 16 112
WIRE 368 112 368 64
WIRE 368 112 336 112
WIRE 256 192 128 192
WIRE 368 192 368 112
WIRE 368 192 336 192
WIRE -32 240 -32 112
WIRE 128 240 128 192
FLAG -896 336 0
FLAG -32 320 0
FLAG 128 320 0
FLAG 432 80 0
FLAG 576 128 0
FLAG 224 32 0
FLAG 432 16 VCC
FLAG 368 256 0
FLAG 16 192 0
FLAG -896 256 VCC
SYMBOL voltage -896 240 R0
WINDOW 123 0 0 Left 0
WINDOW 39 0 0 Left 0
SYMATTR InstName V1
SYMATTR Value 12
SYMBOL voltage -32 224 R0
WINDOW 3 2 224 Left 2
WINDOW 39 0 0 Left 0
SYMATTR Value PULSE(0 2.5 1 10 1 1)
SYMATTR Value2 AC 1
SYMATTR InstName V2
SYMBOL Opamps\\AD8675 432 -16 R0
SYMATTR InstName U1
SYMBOL res 560 32 R0
SYMATTR InstName R1
SYMATTR Value 10k
SYMBOL res 368 16 R90
WINDOW 0 0 56 VBottom 2
WINDOW 3 32 56 VTop 2
SYMATTR InstName R2
SYMATTR Value 2400
SYMBOL res 512 -96 R90
WINDOW 0 0 56 VBottom 2
WINDOW 3 32 56 VTop 2
SYMATTR InstName R3
SYMATTR Value 9100
SYMBOL res 352 176 R90
WINDOW 0 0 56 VBottom 2
WINDOW 3 32 56 VTop 2
SYMATTR InstName R5
SYMATTR Value 9100
SYMBOL res 352 96 R90
WINDOW 0 0 56 VBottom 2
WINDOW 3 32 56 VTop 2
SYMATTR InstName R6
SYMATTR Value 2400
SYMBOL cap 352 192 R0
SYMATTR InstName C3
SYMATTR Value 4.4µ
SYMBOL cap 496 -192 R90
WINDOW 0 0 32 VBottom 2
WINDOW 3 32 32 VTop 2
SYMATTR InstName C4
SYMATTR Value 2.2µ
SYMBOL res 0 96 R0
SYMATTR InstName R8
SYMATTR Value 10k
SYMBOL voltage 128 224 R0
WINDOW 3 2 224 Left 2
WINDOW 123 24 44 Left 2
WINDOW 39 0 0 Left 0
SYMATTR Value SINE(1.25 1.25 1 1)
SYMATTR Value2 AC 1
SYMATTR InstName V3
TEXT -32 448 Left 2 !.tran 12
TEXT -376 -264 Left 2 !;ac dec 100 1 1meg
